Circuit: * E:\Work\dp-svn\trunk\FPGA\DSO-opamp\V2\SIM\OPAMP-0.6Vp-p-bitscope.asc

Direct Newton iteration failed to find .op point.  (Use ".option noopiter" to skip.)
Starting Gmin stepping
Gmin = 10
Gmin = 1.07374
Gmin = 0.115292
Gmin = 0.0123794
vernier = 0.5
vernier = 0.25
vernier = 0.125
vernier = 0.0625
vernier = 0.03125
vernier = 0.015625
vernier = 0.0078125
Gmin = 0.00792282
vernier = 0.00390625
vernier = 0.00195313
vernier = 0.000976563
vernier = 0.000488281
Gmin = 0
Gmin stepping failed

Starting source stepping with srcstepmethod=0
Source Step = 3.0303%
Source Step = 33.3333%
Source Step = 63.6364%
Source Step = 93.9394%
Source stepping succeeded in finding the operating point.


Date: Mon May 09 17:07:46 2011
Total elapsed time: 0.157 seconds.

tnom = 27
temp = 27
method = trap
totiter = 4637
traniter = 0
tranpoints = 0
accept = 0
rejected = 0
matrix size = 39
fillins = 14
solver = Normal
Matrix Compiler1:     134 opcodes  3.2/2.9/[2.3]
Matrix Compiler2: off  [2.4]/2.9/4.6


