Circuit: * E:\Work\dp\Dangerous_DSO\Hardware\v1.0-simulations\OPAMP-0.6Vp-p-bitscope.asc

Direct Newton iteration failed to find .op point.  (Use ".option noopiter" to skip.)
Starting Gmin stepping
Gmin = 10
Gmin = 1.07374
Gmin = 0.115292
Gmin = 0.0123794
vernier = 0.5
vernier = 0.25
vernier = 0.125
vernier = 0.0625
vernier = 0.03125
vernier = 0.015625
vernier = 0.0078125
vernier = 0.00390625
Gmin = 0.0123794
vernier = 0.00195313
vernier = 0.000976563
vernier = 0.000488281
Gmin = 0
Gmin stepping failed

Starting source stepping with srcstepmethod=0
Source Step = 3.0303%
Source Step = 33.3333%
Source Step = 56.0606%
Source Step = 63.6364%
Source Step = 71.2121%
Source Step = 78.7879%
Source Step = 86.3636%
vernier = 0.375
Source Step = 94.3182%
Source stepping succeeded in finding the operating point.


Date: Wed May 11 18:08:37 2011
Total elapsed time: 0.250 seconds.

tnom = 27
temp = 27
method = trap
totiter = 6197
traniter = 0
tranpoints = 0
accept = 0
rejected = 0
matrix size = 39
fillins = 19
solver = Normal
Matrix Compiler1:     138 opcodes  3.9/2.9/[2.0]
Matrix Compiler2: 3.36 KB object code size  2.5/3.0/[2.0]


